sim_data/OPF_example/inputs/case30_mpsim.m
function mpc = case30_mpsim
%CASE30_MPSIM
% Based on case30.5.m

%% MATPOWER Case Format : Version 2
mpc.version = '2';

%%-----  Power Flow Data  -----%%
%% system MVA base
mpc.baseMVA = 100;

%% bus data
%	bus_i	type	Pd	Qd	Gs	Bs	area	Vm	Va	baseKV	zone	Vmax	Vmin
mpc.bus = [
	1	3	0	0	0	0	1	1	0	135	1	1.05	0.95;
	2	2	5.04485072	2.95251632	0	0	1	1	0	135	1	1.1	0.95;
	3	1	22.3182336	11.1591168	0	0	1	1	0	135	1	1.05	0.95;
	4	1	8.8343008	1.8598528	0	0	1	1	0	135	1	1.05	0.95;
	5	1	0	0	0	0.19	1	1	0	135	1	1.05	0.95;
	6	1	0	0	0	0	1	1	0	135	1	1.05	0.95;
	7	2	26.5029024	12.6702472	0	0	1	1	0	135	1	1.05	0.95;
	8	1	13.948896	13.948896	0	0	1	1	0	135	1	1.05	0.95;
	9	1	0	0	0	0	1	1	0	135	1	1.05	0.95;
	10	1	6.7419664	2.324816	0	0	3	1	0	135	1	1.05	0.95;
	11	1	0	0	0	0	1	1	0	135	1	1.05	0.95;
	12	1	2.60379392	1.743612	0	0	2	1	0	135	1	1.05	0.95;
	13	2	0	0	0	0	2	1	0	135	1	1.1	0.95;
	14	1	1.44138592	0.37197056	0	0	2	1	0	135	1	1.05	0.95;
	15	2	8.10198376	2.470117	0	0	2	1	0	135	1	1.05	0.95;
	16	1	0.8136856	0.41846688	0	0	2	1	0	135	1	1.05	0.95;
	17	1	2.0923344	1.34839328	0	0	2	1	0	135	1	1.05	0.95;
	18	1	3.16174976	0.88924212	0	0	2	1	0	135	1	1.05	0.95;
	19	1	9.3864446	3.35935912	0	0	2	1	0	135	1	1.05	0.95;
	20	1	2.17370296	0.69163276	0	0	2	1	0	135	1	1.05	0.95;
	21	1	3.39036345	2.16983261	0	0	3	1	0	135	1	1.05	0.95;
	22	2	0	0	0	0	3	1	0	135	1	1.1	0.95;
	23	2	18.9704986	9.48524928	0	0	2	1	0	135	1	1.1	0.95;
	24	1	10.1129496	7.7881336	0	0.04	3	1	0	135	1	1.05	0.95;
	25	1	0	0	0	0	3	1	0	135	1	1.05	0.95;
	26	1	4.068428	2.6735384	0	0	3	1	0	135	1	1.05	0.95;
	27	2	0	0	0	0	3	1	0	135	1	1.1	0.95;
	28	1	0	0	0	0	1	1	0	135	1	1.05	0.95;
	29	1	2.7897792	1.0461672	0	0	3	1	0	135	1	1.05	0.95;
	30	2	12.3215248	2.2085752	0	0	3	1	0	135	1	1.05	0.95;
];

%% generator data
%	bus	Pg	Qg	Qmax	Qmin	Vg	mBase	status	Pmax	Pmin	Pc1	Pc2	Qc1min	Qc1max	Qc2min	Qc2max	ramp_agc	ramp_10	ramp_30	ramp_q	apf
mpc.gen = [
	1	23.54	0	60	-15	1	100	1	60	0	0	0	0	0	0	0	0	0	10	0	0;
	2	60.97	0	60	-15	1	100	1	60	0	0	0	0	0	0	0	0	0	10	0	0;
	22	21.59	0	60	-15	1	100	1	60	0	0	0	0	0	0	0	0	0	10	0	0;
	27	26.91	0	60	-15	1	100	1	60	0	0	0	0	0	0	0	0	0	10	0	0;
	23	19.2	0	60	-15	1	100	1	60	0	0	0	0	0	0	0	0	0	10	0	0;
	13	37	0	60	-15	1	100	1	60	0	0	0	0	0	0	0	0	0	10	0	0;
];

%% branch data
%	fbus	tbus	r	x	b	rateA	rateB	rateC	ratio	angle	status	angmin	angmax
mpc.branch = [
	1	2	0.02	0.06	0.03	0	130	130	0	0	1	-360	360;
	1	3	0.05	0.19	0.02	0	130	130	0	0	1	-360	360;
	2	4	0.06	0.17	0.02	0	65	65	0	0	1	-360	360;
	3	4	0.01	0.04	0	0	130	130	0	0	1	-360	360;
	2	5	0.05	0.2	0.02	0	130	130	0	0	1	-360	360;
	2	6	0.06	0.18	0.02	0	65	65	0	0	1	-360	360;
	4	6	0.01	0.04	0	0	90	90	0	0	1	-360	360;
	5	7	0.05	0.12	0.01	0	70	70	0	0	1	-360	360;
	6	7	0.03	0.08	0.01	0	130	130	0	0	1	-360	360;
	6	8	0.01	0.04	0	0	32	32	0	0	1	-360	360;
	6	9	0	0.21	0	0	65	65	0	0	1	-360	360;
	6	10	0	0.56	0	0	32	32	0	0	1	-360	360;
	9	11	0	0.21	0	0	65	65	0	0	1	-360	360;
	9	10	0	0.11	0	0	65	65	0	0	1	-360	360;
	4	12	0	0.26	0	10	65	65	0	0	1	-360	360;
	12	13	0	0.14	0	0	65	65	0	0	1	-360	360;
	12	14	0.12	0.26	0	0	32	32	0	0	1	-360	360;
	12	15	0.07	0.13	0	0	32	32	0	0	1	-360	360;
	12	16	0.09	0.2	0	0	32	32	0	0	1	-360	360;
	14	15	0.22	0.2	0	0	16	16	0	0	1	-360	360;
	16	17	0.08	0.19	0	0	16	16	0	0	1	-360	360;
	15	18	0.11	0.22	0	0	16	16	0	0	1	-360	360;
	18	19	0.06	0.13	0	0	16	16	0	0	1	-360	360;
	19	20	0.03	0.07	0	0	32	32	0	0	1	-360	360;
	10	20	0.09	0.21	0	0	32	32	0	0	0	-360	360;
	10	17	0.03	0.08	0	0	32	32	0	0	0	-360	360;
	10	21	0.03	0.07	0	0	32	32	0	0	1	-360	360;
	10	22	0.07	0.15	0	0	32	32	0	0	1	-360	360;
	21	22	0.01	0.02	0	0	32	32	0	0	1	-360	360;
	15	23	0.1	0.2	0	0	16	16	0	0	1	-360	360;
	22	24	0.12	0.18	0	0	16	16	0	0	1	-360	360;
	23	24	0.13	0.27	0	12	16	16	0	0	1	-360	360;
	24	25	0.19	0.33	0	0	16	16	0	0	1	-360	360;
	25	26	0.25	0.38	0	0	16	16	0	0	1	-360	360;
	25	27	0.11	0.21	0	0	16	16	0	0	1	-360	360;
	28	27	0	0.4	0	0	65	65	0	0	1	-360	360;
	27	29	0.22	0.42	0	0	16	16	0	0	1	-360	360;
	27	30	0.32	0.6	0	0	16	16	0	0	1	-360	360;
	29	30	0.24	0.45	0	0	16	16	0	0	1	-360	360;
	8	28	0.06	0.2	0.02	0	32	32	0	0	1	-360	360;
	6	28	0.02	0.06	0.01	0	32	32	0	0	1	-360	360;
];

%%-----  OPF Data  -----%%
%% generator cost data
%	1	startup	shutdown	n	x1	y1	...	xn	yn
%	2	startup	shutdown	n	c(n-1)	...	c0
mpc.gencost = [
	1	0	0	4	0	0	12	240	36	1200	60	2400;
	1	0	0	4	0	0	12	240	36	1200	60	2500;
	1	0	0	4	0	0	12	240	36	1200	60	3000;
	1	0	0	4	0	0	12	240	36	1200	60	2400;
	1	0	0	4	0	0	12	540	36	1860	60	4500;
	1	0	0	4	0	0	12	540	36	1860	60	5000;
];
